[General]
num-rngs = 3
#network = Lan80211
network = AlineTests
#warmup-period = 1200s
sim-time-limit = 8400s
output-vector-file = "${resultdir}/${configname}-run-${runnumber}.vec"
output-scalar-file = "${resultdir}/${configname}-run-${runnumber}.sca"

*.cmdenv-log-level=detail
**.result-recording-modes=default

**.mobility.rng-0 = 1

check-signals = false # remove this and change modules accordingly

*.spectrumrecorder.EnableLog = false
*.*.mobility.coordinateSystemModule = "coordinateSystem" # reference

#*.visualizer.sceneVisualizer.typename = "OpenStreetMapSceneCanvasVisualizer"
#*.visualizer.sceneVisualizer.mapFile = xmldoc("map.osm")

#UTFPR Curitiba Campus - Brazil
*.coordinateSystem.sceneLongitude = -49.268640deg # scene origin
*.coordinateSystem.sceneLatitude = -25.439001deg # scene origin
*.coordinateSystem.sceneAltitude = 0m
*.coordinateSystem.sceneHeading = 0deg # scene orientation

# mobility
*.*.mobility.typename = "LabscimMeshRandomMobility" 
#*.lorahost[*].mobility.typename = "LabscimStationaryMobility"
*.*.mobility.constraintAreaMinX = 0m
*.*.mobility.constraintAreaMinY = 0m
*.*.mobility.constraintAreaMinZ = 0m
*.*.mobility.constraintAreaMaxX = 33m
*.*.mobility.constraintAreaMaxY = 16m
*.*.mobility.constraintAreaMaxZ = 3m
*.*.mobility.initFromDisplayString = false

*.*.mobility.context = 1

**.radioMode.result-recording-modes=-
**.receptionState.result-recording-modes=-
**.transmissionState.result-recording-modes=-

*.*.TSCHUpstreamPacketGenerated.result-recording-modes=all
*.*.TSCHUpstreamPacketLatency.result-recording-modes=all

# radio medium settings
*.radioMedium.typename = "RadioMedium"
*.radioMedium.analogModel.typename = "DimensionalAnalogModel"
*.radioMedium.backgroundNoise.typename = "IsotropicDimensionalBackgroundNoise"
*.radioMedium.backgroundNoise.powerSpectralDensity = -113dBmWpMHz
*.radioMedium.backgroundNoise.power = nan dBm

**.signalAnalogRepresentation = "dimensional"
*.radioMedium.radioModeFilter = true
*.radioMedium.propagationType = "ConstantSpeedPropagation"

*.radioMedium.pathLoss.typename = "LogNormalShadowing"
*.radioMedium.pathLoss.alpha = 2.5 #Goldsmith: Urban macrocells 3.7 to 6.5, Urban microcells 2.7 to 3.5, but we are setting to 1.5 because dielectric obstacle loss will add more losses
*.radioMedium.pathLoss.sigma = 5.38 #see https://doi.org/10.3390/jsan9010012

*.radioMedium.obstacleLoss.typename = "DielectricObstacleLoss"
**.physicalEnvironment.objectCache.typename = "BvhObjectCache"
**.objectCache.leafCapacity = 4
**.objectCache.axisOrder = "XY"

seed-set = ${runnumber}
repeat = 8

**.powerConsumption:vector.vector-recording= false
**.radioMode:vector.vector-recording= false
**.receptionState:vector.vector-recording= false
**.residualEnergyCapacity:vector.vector-recording=false
**.transmissionState:vector.vector-recording=false
**.energyStorage.residualEnergyCapacity.result-recording-modes=+last

*.physicalEnvironment.ground.typename = "FlatGround"
*.physicalEnvironment.ground.elevation = 0m

[Config smallhouses]
*.physicalEnvironment.config = xmldoc("walls.xml")
*.numClass1Hosts=37
*.numClass2Hosts=21
*.numClass3Hosts=12
*.Class1Host[0].mobility.initialZ=3m
*.Class1Host[0].mobility.InitByCartesianCoord=true
*.Class1Host[0].mobility.fixedNode=true
*.Class1Host[0].mobility.initialX=8.8m
*.Class1Host[0].mobility.initialY=4.3m
*.ap.mobility.initialZ = 3m
*.ap.mobility.InitByCartesianCoord = true
*.ap.mobility.fixedNode = true
*.ap.mobility.initialX = 8.5m	
*.ap.mobility.initialY = 4.3m
*.*.mobility.InitByCartesianCoord=false
*.*.mobility.initialZ=uniform(0m,3m)
*.*.mobility.fixedNode=false
*.*.mobility.boundaryPolygonX = [            
            0.0,
            4.0,
            4.0,
			7.5,
			7.5,
			13.0,
			13.0,
			0.0,
			0.0
        ]
*.*.mobility.boundaryPolygonY = [            
            5.0,
            5.0,
            0.0,
			0.0,
			2.0,
			2.0,
			11.0,
			11.0,
			5.0
        ]



*.*.mobility.minimumDistance=0.3m
*.*.mobility.maximumDistance=5m
*.*.mobility.numPoints=70


[Config bighouses]
*.physicalEnvironment.config = xmldoc("wallsgrande.xml")
*.numClass1Hosts=59
*.numClass2Hosts=25
*.numClass3Hosts=36
*.Class1Host[0].mobility.initialZ=3m
*.Class1Host[0].mobility.InitByCartesianCoord=true
*.Class1Host[0].mobility.fixedNode=true
*.Class1Host[0].mobility.initialX=21.2m
*.Class1Host[0].mobility.initialY=8.6m
*.ap.mobility.initialZ = 3m
*.ap.mobility.InitByCartesianCoord = true
*.ap.mobility.fixedNode = true
*.ap.mobility.initialX = 21.2m	
*.ap.mobility.initialY = 8.6m
*.*.mobility.InitByCartesianCoord=false
*.*.mobility.fixedNode=false
*.*.mobility.initialZ=uniform(0m,3m)
*.*.mobility.boundaryPolygonX = [            
            3.5,
            6.4,
			15.7,
            15.7,
			32.7,
			32.7,
			29.8,
			29.8,
			26.1,
			26.1,
			3.5,
			3.5
        ]
      
     
*.*.mobility.boundaryPolygonY = [            
            8.7,
            8.7,
			8.7,		
            1.3,
			1.3,
			6.6,
			6.6,
			12.8,
			12.8,
			16.3,
			16.3,
			8.7
        ]

*.*.mobility.minimumDistance=0.3m
*.*.mobility.maximumDistance=5m
*.*.mobility.numPoints=120


[Config nointerference]
*.numClass4Hosts=0
*.numClass5Hosts=0
*.numClass6Hosts=0
*.numClass7Hosts=0

[Config interference]
*.numClass4Hosts=0
*.numClass5Hosts=0
*.numClass6Hosts=2
*.numClass7Hosts=2

[Config TSCH]
**.maxTransmissionDuration=2s
*.*.wlan[*].radio.receiver.snirThresholdMode="mean"
*.*.wlan[*].typename="ContikiNGInterface"
*.Class1Host[0].wlan[*].mac.BootTime=0.05s
*.Class1Host[0].wlan[*].mac.TSCHCoordinator=true
*.*.wlan[*].mac.BootTime=uniform(0.1s,500s)
*.*.wlan[*].mac.NodeProcessCommand="$HOME/contiki-ng/examples/6tisch/simple-node/node.labscim"
*.Class1host.wlan[*].mac.NodeDebug=false
*.*.wlan[*].mac.NodeDebug=false
*.*.wlan[*].radio.typename="Ieee802154NarrowbandDimensionalRadio"
*.*.wlan[*].radio.centerFrequency=902.2MHz
*.*.wlan[*].radio.bandwidth=0.2MHz
*.*.wlan[*].radio.*.bitrate=50kbps
*.*.wlan[*].radio.*.modulation="BPSK"
*.*.wlan[*].radio.transmitter.power=5mW
*.*.wlan[*].radio.receiver.energyDetection=-103dBm
*.*.wlan[*].radio.receiver.sensitivity=-100dBm
*.*.wlan[*].radio.receiver.minInterferencePower=-120dBm
*.*.wlan[*].radio.receiver.snirThreshold=-8dB


[Config CSMA]
**.maxTransmissionDuration=2s
*.*.wlan[*].radio.receiver.snirThresholdMode="mean"
*.*.wlan[*].typename="ContikiNGInterface"
*.Class1Host[0].wlan[*].mac.BootTime=0.05s
*.Class1Host[0].wlan[*].mac.TSCHCoordinator=true
*.*.wlan[*].mac.BootTime=uniform(0.1s,500s)
*.Class1Host[0].wlan[*].mac.NodeProcessCommand="$HOME/contiki-ng/examples/rpl-udp/udp-server.labscim"
*.*.wlan[*].mac.NodeProcessCommand="$HOME/contiki-ng/examples/rpl-udp/udp-client.labscim"
*.Class1host.wlan[*].mac.NodeDebug=false
*.*.wlan[*].mac.NodeDebug=false
*.*.wlan[*].radio.typename="Ieee802154NarrowbandDimensionalRadio"
*.*.wlan[*].radio.centerFrequency=902.2MHz
*.*.wlan[*].radio.bandwidth=0.2MHz
*.*.wlan[*].radio.*.bitrate=50kbps
*.*.wlan[*].radio.*.modulation="BPSK"
*.*.wlan[*].radio.transmitter.power=5mW
*.*.wlan[*].radio.receiver.energyDetection=-103dBm
*.*.wlan[*].radio.receiver.sensitivity=-100dBm
*.*.wlan[*].radio.receiver.minInterferencePower=-120dBm
*.*.wlan[*].radio.receiver.snirThreshold=-8dB

[Config WiFi2p4GHz]
# access point
**.ap.wlan[*].address = "10:00:00:00:00:00"
*.*.wlan[*].mgmt.accessPointAddress = "10:00:00:00:00:00"

*.*.wlan[*].radio.typename = "Ieee80211DimensionalRadio"
**.ap.wlan[*].radio.typename = "Ieee80211DimensionalRadio"

# Server 
*.Class1Host[0].numApps = 2

*.Class1Host[0].app[0].typename = "LabscimUdpEchoApp"
*.Class1Host[0].app[0].localPort = 9608

*.Class1Host[0].app[1].typename = "LabscimUdpSink"
*.Class1Host[0].app[1].localPort = 9609

**.numApps = 1
*.Class1Host[*].app[0].typename = "LabscimUdpBasicApp"
*.Class1Host[*].app[0].destAddresses = "Class1Host[0]"
*.Class1Host[*].app[0].destPort = 9608

*.Class2Host[*].app[0].typename = "LabscimUdpBasicApp"
*.Class2Host[*].app[0].destAddresses = "Class1Host[0]"
*.Class2Host[*].app[0].destPort = 9608

*.Class3Host[*].app[0].typename = "LabscimUdpBasicApp"
*.Class3Host[*].app[0].destAddresses = "Class1Host[0]"
*.Class3Host[*].app[0].destPort = 9608

*.Class4Host[*].app[0].typename = "LabscimUdpBasicApp"
*.Class4Host[*].app[0].destAddresses = "Class1Host[0]"
*.Class4Host[*].app[0].destPort = 9609

*.Class5Host[*].app[0].typename = "LabscimUdpBasicApp"
*.Class5Host[*].app[0].destAddresses = "Class1Host[0]"
*.Class5Host[*].app[0].destPort = 9609

*.Class6Host[*].app[0].typename = "LabscimUdpBasicApp"
*.Class6Host[*].app[0].destAddresses = "Class1Host[0]"
*.Class6Host[*].app[0].destPort = 9609

*.Class7Host[*].app[0].typename = "LabscimUdpBasicApp"
*.Class7Host[*].app[0].destAddresses = "Class1Host[0]"
*.Class7Host[*].app[0].destPort = 9609

# nic settings - based on esp32 datasheet
*.ap.numWlanInterfaces = 2
*.ap.wlan[0].mgmt.ssid = "wlan_g"
*.ap.wlan[0].opMode = "g(mixed)"
*.ap.wlan[0].radio.antenna.numAntennas = 1 

*.ap.wlan[1].mgmt.ssid = "wlan_n"
*.ap.wlan[1].opMode = "n(mixed-2.4Ghz)"
*.ap.wlan[1].radio.antenna.numAntennas = 4

*.Class1Host[*].wlan[*].agent.defaultSsid = "wlan_g"
*.Class2Host[*].wlan[*].agent.defaultSsid = "wlan_g"
*.Class3Host[*].wlan[*].agent.defaultSsid = "wlan_g"
*.Class4Host[*].wlan[*].agent.defaultSsid = "wlan_n"
*.Class5Host[*].wlan[*].agent.defaultSsid = "wlan_n"
*.Class6Host[*].wlan[*].agent.defaultSsid = "wlan_n"
*.Class7Host[*].wlan[*].agent.defaultSsid = "wlan_n"
 
*.Class1Host[*].wlan[*].opMode = "g(mixed)"
*.Class2Host[*].wlan[*].opMode = "g(mixed)"
*.Class3Host[*].wlan[*].opMode = "g(mixed)"
*.Class4Host[*].wlan[*].opMode = "n(mixed-2.4Ghz)"
*.Class5Host[*].wlan[*].opMode = "n(mixed-2.4Ghz)"
*.Class6Host[*].wlan[*].opMode = "n(mixed-2.4Ghz)"
*.Class7Host[*].wlan[*].opMode = "n(mixed-2.4Ghz)"

**.bandName = "2.4 GHz" #,"5 GHz (20 MHz)","5 GHz (40 MHz)","5 GHz (80 MHz)","5 GHz (160 MHz)"

*.Class1Host[*].wlan[*].radio.antenna.numAntennas = 1 
*.Class2Host[*].wlan[*].radio.antenna.numAntennas = 1 
*.Class3Host[*].wlan[*].radio.antenna.numAntennas = 1 
*.Class4Host[*].wlan[*].radio.antenna.numAntennas = 4 
*.Class5Host[*].wlan[*].radio.antenna.numAntennas = 4 
*.Class6Host[*].wlan[*].radio.antenna.numAntennas = 4 
*.Class7Host[*].wlan[*].radio.antenna.numAntennas = 4 

#**.wlan*.bitrate = 54Mbps
**.wlan[*].mac.dcf.channelAccess.cwMin = 7
**.wlan[*].radio.transmitter.power = 39.8mW #16dBm
**.wlan[*].radio.transmitter.headerLength = 96b
**.wlan[*].radio.transmitter.centerFrequency = 2.4GHz
**.wlan[*].radio.receiver.sensitivity = -75dBm
**.wlan[*].radio.receiver.snirThreshold = 4dB
**.ipv4.arp.typename = "GlobalArp"

#energy consumption
*.*.energyStorage.typename = "IdealEpEnergyStorage"
*.Class1Host[*].wlan[*].radio.energyConsumer.typename = "LabSCimStateBasedEpEnergyConsumer"
*.Class2Host[*].wlan[*].radio.energyConsumer.typename = "LabSCimStateBasedEpEnergyConsumer"
*.Class3Host[*].wlan[*].radio.energyConsumer.typename = "LabSCimStateBasedEpEnergyConsumer"
*.Class4Host[*].wlan[*].radio.energyConsumer.typename = "LabSCimStateBasedEpEnergyConsumer"
*.Class5Host[*].wlan[*].radio.energyConsumer.typename = "LabSCimStateBasedEpEnergyConsumer"
*.Class6Host[*].wlan[*].radio.energyConsumer.typename = "LabSCimStateBasedEpEnergyConsumer"
*.Class7Host[*].wlan[*].radio.energyConsumer.typename = "LabSCimStateBasedEpEnergyConsumer"

#Based on esp32 datasheet
**.wlan[*].radio.energyConsumer.offPowerConsumption = 0mW
**.wlan[*].radio.energyConsumer.sleepPowerConsumption = 2.4mW #0.8mA@3.3V
**.wlan[*].radio.energyConsumer.switchingPowerConsumption = 10mW #guess
**.wlan[*].radio.energyConsumer.receiverIdlePowerConsumption = 313.5mW #95mA@3.3V
**.wlan[*].radio.energyConsumer.receiverBusyPowerConsumption = 313.5mW #95mA@3.3V
**.wlan[*].radio.energyConsumer.receiverReceivingPowerConsumption = 313.5mW #95mA@3.3V
**.wlan[*].radio.energyConsumer.transmitterIdlePowerConsumption = 20mW #just a guess 
**.wlan[*].radio.energyConsumer.transmitterTransmittingPowerConsumption = 0mW
**.wlan[*].radio.energyConsumer.transmitterTransmittingPowerConsumptionIncreasePerWatt = 8.8 #(792mW consumption at 19.5dbm,240mA@3.3V)

**.app[0].rcvdPkLifetime.result-recording-modes = +histogram



[Config Power900MHz]
*.*.energyStorage.typename="IdealEpEnergyStorage"
*.Class1Host[*].wlan[*].radio.energyConsumer.typename="LabSCimStateBasedEpEnergyConsumer"
*.Class2Host[*].wlan[*].radio.energyConsumer.typename="LabSCimStateBasedEpEnergyConsumer"
*.Class3Host[*].wlan[*].radio.energyConsumer.typename="LabSCimStateBasedEpEnergyConsumer"
*.Class4Host[*].wlan[*].radio.energyConsumer.typename="LabSCimStateBasedEpEnergyConsumer"
*.Class5Host[*].wlan[*].radio.energyConsumer.typename="LabSCimStateBasedEpEnergyConsumer"
*.Class6Host[*].wlan[*].radio.energyConsumer.typename="LabSCimStateBasedEpEnergyConsumer"
*.Class7Host[*].wlan[*].radio.energyConsumer.typename="LabSCimStateBasedEpEnergyConsumer"
**.wlan[*].radio.energyConsumer.offPowerConsumption=0mW
**.wlan[*].radio.energyConsumer.sleepPowerConsumption=3uW
**.wlan[*].radio.energyConsumer.switchingPowerConsumption=1mW
**.wlan[*].radio.energyConsumer.receiverIdlePowerConsumption=17.82mW
**.wlan[*].radio.energyConsumer.receiverBusyPowerConsumption=17.82mW
**.wlan[*].radio.energyConsumer.receiverReceivingPowerConsumption=17.82mW
**.wlan[*].radio.energyConsumer.transmitterIdlePowerConsumption=20mW
**.wlan[*].radio.energyConsumer.transmitterTransmittingPowerConsumption=0mW
**.wlan[*].radio.energyConsumer.transmitterTransmittingPowerConsumptionIncreasePerWatt=4.5

[Config Power2p4GHz]
*.*.energyStorage.typename="IdealEpEnergyStorage"
*.Class1Host[*].wlan[*].radio.energyConsumer.typename="LabSCimStateBasedEpEnergyConsumer"
*.Class2Host[*].wlan[*].radio.energyConsumer.typename="LabSCimStateBasedEpEnergyConsumer"
*.Class3Host[*].wlan[*].radio.energyConsumer.typename="LabSCimStateBasedEpEnergyConsumer"
*.Class4Host[*].wlan[*].radio.energyConsumer.typename="LabSCimStateBasedEpEnergyConsumer"
*.Class5Host[*].wlan[*].radio.energyConsumer.typename="LabSCimStateBasedEpEnergyConsumer"
*.Class6Host[*].wlan[*].radio.energyConsumer.typename="LabSCimStateBasedEpEnergyConsumer"
*.Class7Host[*].wlan[*].radio.energyConsumer.typename="LabSCimStateBasedEpEnergyConsumer"
**.wlan[*].radio.energyConsumer.offPowerConsumption=0mW
**.wlan[*].radio.energyConsumer.sleepPowerConsumption=3.3uW
**.wlan[*].radio.energyConsumer.switchingPowerConsumption=1mW
**.wlan[*].radio.energyConsumer.receiverIdlePowerConsumption=19.47mW
**.wlan[*].radio.energyConsumer.receiverBusyPowerConsumption=19.47mW
**.wlan[*].radio.energyConsumer.receiverReceivingPowerConsumption=19.47mW
**.wlan[*].radio.energyConsumer.transmitterIdlePowerConsumption=20mW
**.wlan[*].radio.energyConsumer.transmitterTransmittingPowerConsumption=0mW
**.wlan[*].radio.energyConsumer.transmitterTransmittingPowerConsumptionIncreasePerWatt=9.5

[Config case01-SmallHouseTSCHRandom900MHz]
extends = smallhouses,nointerference, TSCH, Power900MHz
*.*.wlan[*].mac.PacketGenerationRate=60s

[Config case02-SmallHouseTSCHRandom2p4GHz]
extends = smallhouses,nointerference, TSCH, Power2p4GHz 
*.*.wlan[*].mac.PacketGenerationRate=60s

[Config case03-SmallHouseCSMARandom900MHz]
extends = smallhouses,nointerference, CSMA, Power900MHz 
*.*.wlan[*].mac.PacketGenerationRate=60s

[Config case04-SmallHouseCSMARandom2p4GHz]
extends = smallhouses,nointerference, CSMA, Power2p4GHz 
*.*.wlan[*].mac.PacketGenerationRate=60s

[Config case05-SmallHouseWiFiRandom2p4GHz]
extends = smallhouses,nointerference, WiFi2p4GHz
*.Class1Host[*].app[0].messageLength = 9B
*.Class1Host[*].app[0].sendInterval = exponential(60s)
*.Class2Host[*].app[0].messageLength = 9B
*.Class2Host[*].app[0].sendInterval = exponential(60s)
*.Class3Host[*].app[0].messageLength = 9B
*.Class3Host[*].app[0].sendInterval = exponential(60s)
*.Class4Host[*].app[0].messageLength = 1024B
*.Class4Host[*].app[0].sendInterval = 0.32768ms #25mbit/s
*.Class5Host[*].app[0].messageLength = 1024B
*.Class5Host[*].app[0].sendInterval = 0.32768ms #25mbit/s
*.Class6Host[*].app[0].messageLength = 1024B
*.Class6Host[*].app[0].sendInterval = 2.666ms #3mbit/s
*.Class7Host[*].app[0].messageLength = 1024B
*.Class7Host[*].app[0].sendInterval = 2.666ms #3mbit/s

[Config case13-BigHouseTSCHRandom900Mhz]
extends = bighouses,nointerference, TSCH, Power900MHz 
*.*.wlan[*].mac.PacketGenerationRate=60s

[Config case14-BigHouseTSCHRandom2p4Ghz]
extends = bighouses,nointerference, TSCH, Power2p4GHz
*.*.wlan[*].mac.PacketGenerationRate=60s

[Config case15-BigHouseCSMARandom900Mhz]
extends = bighouses,nointerference, CSMA, Power900MHz
*.*.wlan[*].mac.PacketGenerationRate=60s

[Config case16-BigHouseCSMARandom2p4Ghz]
extends = bighouses,nointerference, CSMA, Power2p4GHz
*.*.wlan[*].mac.PacketGenerationRate=60s

[Config case17-BigHouseWiFiRandom2p4GHz]
extends = bighouses,nointerference, WiFi2p4GHz
*.Class1Host[*].app[0].messageLength = 9B
*.Class1Host[*].app[0].sendInterval = exponential(60s)
*.Class2Host[*].app[0].messageLength = 9B
*.Class2Host[*].app[0].sendInterval = exponential(60s)
*.Class3Host[*].app[0].messageLength = 9B
*.Class3Host[*].app[0].sendInterval = exponential(60s)
*.Class4Host[*].app[0].messageLength = 1024B
*.Class4Host[*].app[0].sendInterval = 0.32768ms #25mbit/s
*.Class5Host[*].app[0].messageLength = 1024B
*.Class5Host[*].app[0].sendInterval = 0.32768ms #25mbit/s
*.Class6Host[*].app[0].messageLength = 1024B
*.Class6Host[*].app[0].sendInterval = 2.666ms #3mbit/s
*.Class7Host[*].app[0].messageLength = 1024B
*.Class7Host[*].app[0].sendInterval = 2.666ms #3mbit/s

[Config case29-SmallHouseWiFiRandom2p4GHzInterference]
extends = smallhouses,interference, WiFi2p4GHz
*.Class1Host[*].app[0].messageLength = 9B
*.Class1Host[*].app[0].sendInterval = exponential(60s)
*.Class2Host[*].app[0].messageLength = 9B
*.Class2Host[*].app[0].sendInterval = exponential(60s)
*.Class3Host[*].app[0].messageLength = 9B
*.Class3Host[*].app[0].sendInterval = exponential(60s)
*.Class4Host[*].app[0].messageLength = 1024B
*.Class4Host[*].app[0].sendInterval = 0.32768ms #25mbit/s
*.Class5Host[*].app[0].messageLength = 1024B
*.Class5Host[*].app[0].sendInterval = 0.32768ms #25mbit/s
*.Class6Host[*].app[0].messageLength = 1024B
*.Class6Host[*].app[0].sendInterval = 2.666ms #3mbit/s
*.Class7Host[*].app[0].messageLength = 1024B
*.Class7Host[*].app[0].sendInterval = 2.666ms #3mbit/s

[Config case41-BigHouseWiFiRandom2p4GHzInterference]
extends = bighouses,interference, WiFi2p4GHz
*.Class1Host[*].app[0].messageLength = 9B
*.Class1Host[*].app[0].sendInterval = exponential(60s)
*.Class2Host[*].app[0].messageLength = 9B
*.Class2Host[*].app[0].sendInterval = exponential(60s)
*.Class3Host[*].app[0].messageLength = 9B
*.Class3Host[*].app[0].sendInterval = exponential(60s)
*.Class4Host[*].app[0].messageLength = 1024B
*.Class4Host[*].app[0].sendInterval = 0.32768ms #25mbit/s
*.Class5Host[*].app[0].messageLength = 1024B
*.Class5Host[*].app[0].sendInterval = 0.32768ms #25mbit/s
*.Class6Host[*].app[0].messageLength = 1024B
*.Class6Host[*].app[0].sendInterval = 2.666ms #3mbit/s
*.Class7Host[*].app[0].messageLength = 1024B
*.Class7Host[*].app[0].sendInterval = 2.666ms #3mbit/s

[Config case49-SmallHouseTSCHRandom900MHz10s]
extends = smallhouses,nointerference, TSCH, Power900MHz
*.*.wlan[*].mac.PacketGenerationRate=10s

[Config case50-SmallHouseTSCHRandom2p4GHz10s]
extends = smallhouses,nointerference, TSCH, Power2p4GHz 
*.*.wlan[*].mac.PacketGenerationRate=10s

[Config case51-SmallHouseCSMARandom900MHz10s]
extends = smallhouses,nointerference, CSMA, Power900MHz 
*.*.wlan[*].mac.PacketGenerationRate=10s

[Config case52-SmallHouseCSMARandom2p4GHz10s]
extends = smallhouses,nointerference, CSMA, Power2p4GHz 
*.*.wlan[*].mac.PacketGenerationRate=10s

[Config case53-SmallHouseWiFiRandom2p4GHz10s]
extends = smallhouses,nointerference, WiFi2p4GHz
*.Class1Host[*].app[0].messageLength = 9B
*.Class1Host[*].app[0].sendInterval = exponential(10s)
*.Class2Host[*].app[0].messageLength = 9B
*.Class2Host[*].app[0].sendInterval = exponential(10s)
*.Class3Host[*].app[0].messageLength = 9B
*.Class3Host[*].app[0].sendInterval = exponential(10s)
*.Class4Host[*].app[0].messageLength = 1024B
*.Class4Host[*].app[0].sendInterval = 0.32768ms #25mbit/s
*.Class5Host[*].app[0].messageLength = 1024B
*.Class5Host[*].app[0].sendInterval = 0.32768ms #25mbit/s
*.Class6Host[*].app[0].messageLength = 1024B
*.Class6Host[*].app[0].sendInterval = 2.666ms #3mbit/s
*.Class7Host[*].app[0].messageLength = 1024B
*.Class7Host[*].app[0].sendInterval = 2.666ms #3mbit/s

[Config case61-BigHouseTSCHRandom900Mhz10s]
extends = bighouses,nointerference, TSCH, Power900MHz 
*.*.wlan[*].mac.PacketGenerationRate=10s

[Config case62-BigHouseTSCHRandom2p4Ghz10s]
extends = bighouses,nointerference, TSCH, Power2p4GHz
*.*.wlan[*].mac.PacketGenerationRate=10s

[Config case63-BigHouseCSMARandom900Mhz10s]
extends = bighouses,nointerference, CSMA, Power900MHz
*.*.wlan[*].mac.PacketGenerationRate=10s

[Config case64-BigHouseCSMARandom2p4Ghz10s]
extends = bighouses,nointerference, CSMA, Power2p4GHz
*.*.wlan[*].mac.PacketGenerationRate=10s

[Config case65-BigHouseWiFiRandom2p4GHz10]
extends = bighouses,nointerference, WiFi2p4GHz
*.Class1Host[*].app[0].messageLength = 9B
*.Class1Host[*].app[0].sendInterval = exponential(10s)
*.Class2Host[*].app[0].messageLength = 9B
*.Class2Host[*].app[0].sendInterval = exponential(10s)
*.Class3Host[*].app[0].messageLength = 9B
*.Class3Host[*].app[0].sendInterval = exponential(10s)
*.Class4Host[*].app[0].messageLength = 1024B
*.Class4Host[*].app[0].sendInterval = 0.32768ms #25mbit/s
*.Class5Host[*].app[0].messageLength = 1024B
*.Class5Host[*].app[0].sendInterval = 0.32768ms #25mbit/s
*.Class6Host[*].app[0].messageLength = 1024B
*.Class6Host[*].app[0].sendInterval = 2.666ms #3mbit/s
*.Class7Host[*].app[0].messageLength = 1024B
*.Class7Host[*].app[0].sendInterval = 2.666ms #3mbit/s


